IRI - Ideal conformer
     RDKit          3D

  0  0  0  0  0  0  0  0  0  0999 V3000
M  V30 BEGIN CTAB
M  V30 COUNTS 25 24 0 0 0
M  V30 BEGIN ATOM
M  V30 1 Ir 0.000000 0.000000 0.000000 0 CHG=3 VAL=6
M  V30 2 N 0.000000 0.000000 0.000000 0
M  V30 3 N 0.000000 0.000000 0.000000 0
M  V30 4 N 0.000000 0.000000 0.000000 0
M  V30 5 N 0.000000 0.000000 0.000000 0
M  V30 6 N 0.000000 0.000000 0.000000 0
M  V30 7 N 0.000000 0.000000 0.000000 0
M  V30 8 H 0.000000 0.000000 0.000000 0
M  V30 9 H 0.000000 0.000000 0.000000 0
M  V30 10 H 0.000000 0.000000 0.000000 0
M  V30 11 H 0.000000 0.000000 0.000000 0
M  V30 12 H 0.000000 0.000000 0.000000 0
M  V30 13 H 0.000000 0.000000 0.000000 0
M  V30 14 H 0.000000 0.000000 0.000000 0
M  V30 15 H 0.000000 0.000000 0.000000 0
M  V30 16 H 0.000000 0.000000 0.000000 0
M  V30 17 H 0.000000 0.000000 0.000000 0
M  V30 18 H 0.000000 0.000000 0.000000 0
M  V30 19 H 0.000000 0.000000 0.000000 0
M  V30 20 H 0.000000 0.000000 0.000000 0
M  V30 21 H 0.000000 0.000000 0.000000 0
M  V30 22 H 0.000000 0.000000 0.000000 0
M  V30 23 H 0.000000 0.000000 0.000000 0
M  V30 24 H 0.000000 0.000000 0.000000 0
M  V30 25 H 0.000000 0.000000 0.000000 0
M  V30 END ATOM
M  V30 BEGIN BOND
M  V30 1 9 2 1
M  V30 2 9 3 1
M  V30 3 9 4 1
M  V30 4 9 5 1
M  V30 5 9 6 1
M  V30 6 9 7 1
M  V30 7 1 2 8
M  V30 8 1 2 9
M  V30 9 1 2 10
M  V30 10 1 3 11
M  V30 11 1 3 12
M  V30 12 1 3 13
M  V30 13 1 4 14
M  V30 14 1 4 15
M  V30 15 1 4 16
M  V30 16 1 5 17
M  V30 17 1 5 18
M  V30 18 1 5 19
M  V30 19 1 6 20
M  V30 20 1 6 21
M  V30 21 1 6 22
M  V30 22 1 7 23
M  V30 23 1 7 24
M  V30 24 1 7 25
M  V30 END BOND
M  V30 END CTAB
M  END
$$$$
