TEP - Ideal conformer
     RDKit          3D

 21 22  0  0  0  0  0  0  0  0999 V2000
    1.2820   -0.0030    2.7330 C   0  0  0  0  0  0  0  0  0  0  0  0
    0.6250   -0.0020    1.4230 N   0  0  0  0  0  0  0  0  0  0  0  0
   -0.7170   -0.0000    1.3560 C   0  0  0  0  0  0  0  0  0  0  0  0
   -1.3620    0.0000    2.3870 O   0  0  0  0  0  0  0  0  0  0  0  0
   -1.3660    0.0000    0.1770 N   0  0  0  0  0  0  0  0  0  0  0  0
   -2.8310    0.0020    0.1470 C   0  0  0  0  0  0  0  0  0  0  0  0
   -0.6500   -0.0000   -1.0090 C   0  0  0  0  0  0  0  0  0  0  0  0
    0.7370   -0.0020   -0.9550 C   0  0  0  0  0  0  0  0  0  0  0  0
    1.3760    0.0010    0.3030 C   0  0  0  0  0  0  0  0  0  0  0  0
    2.5920    0.0050    0.3760 O   0  0  0  0  0  0  0  0  0  0  0  0
    1.1750   -0.0020   -2.2640 N   0  0  0  0  0  0  0  0  0  0  0  0
    0.0770   -0.0000   -3.0460 C   0  0  0  0  0  0  0  0  0  0  0  0
   -0.9960    0.0000   -2.2990 N   0  0  0  0  0  0  0  0  0  0  0  0
    0.9840   -0.8920    3.2880 H   0  0  0  0  0  0  0  0  0  0  0  0
    2.3630   -0.0040    2.5970 H   0  0  0  0  0  0  0  0  0  0  0  0
    0.9870    0.8870    3.2880 H   0  0  0  0  0  0  0  0  0  0  0  0
   -3.2140    0.0020    1.1680 H   0  0  0  0  0  0  0  0  0  0  0  0
   -3.1820    0.8920   -0.3730 H   0  0  0  0  0  0  0  0  0  0  0  0
   -3.1850   -0.8870   -0.3730 H   0  0  0  0  0  0  0  0  0  0  0  0
    2.0970   -0.0030   -2.5640 H   0  0  0  0  0  0  0  0  0  0  0  0
    0.0840   -0.0010   -4.1260 H   0  0  0  0  0  0  0  0  0  0  0  0
  1  2  1  0
  1 14  1  0
  1 15  1  0
  1 16  1  0
  2  3  1  0
  2  9  1  0
  3  4  2  0
  3  5  1  0
  5  6  1  0
  5  7  1  0
  6 17  1  0
  6 18  1  0
  6 19  1  0
  7  8  2  0
  7 13  1  0
  8  9  1  0
  8 11  1  0
  9 10  2  0
 11 12  1  0
 11 20  1  0
 12 13  2  0
 12 21  1  0
M  END
$$$$
